
 OpenBabel01172620523D

 22 25  0  0  0  0  0  0  0  0999 V2000
  117.6360   92.3580   52.3550 C   0  0  0  0  0  0  0  0  0  0  0  0
  118.9050   91.7690   52.1280 C   0  0  0  0  0  0  0  0  0  0  0  0
  120.0360   92.5700   52.0520 C   0  0  0  0  0  0  0  0  0  0  0  0
  121.0670   91.6870   51.8480 N   0  0  0  0  0  0  0  0  0  0  0  0
  120.5400   90.4320   51.7730 C   0  0  0  0  0  3  0  0  0  0  0  0
  119.2410   90.4370   51.9560 N   0  0  0  0  0  0  0  0  0  0  0  0
  119.9940   93.9610   52.1970 C   0  0  0  0  0  3  0  0  0  0  0  0
  118.7350   94.5340   52.4050 C   0  0  0  0  0  3  0  0  0  0  0  0
  117.5780   93.7520   52.4940 C   0  0  0  0  0  3  0  0  0  0  0  0
  115.3570   92.1610   52.9480 C   0  0  0  0  0  1  0  0  0  0  0  0
  116.5420   91.5320   52.4720 O   0  0  0  0  0  0  0  0  0  0  0  0
  122.4830   92.0020   51.7010 C   0  0  0  0  0  2  0  0  0  0  0  0
  123.2050   92.2570   53.0040 C   0  0  0  0  0  0  0  0  0  0  0  0
  123.4590   91.1500   53.8320 C   0  0  0  0  0  3  0  0  0  0  0  0
  124.1210   91.3050   55.0520 C   0  0  0  0  0  3  0  0  0  0  0  0
  124.4160   92.5810   55.5390 C   0  0  0  0  0  0  0  0  0  0  0  0
  124.9970   92.7520   56.8000 C   0  0  0  0  0  3  0  0  0  0  0  0
  124.8740   93.9740   57.4510 C   0  0  0  0  0  3  0  0  0  0  0  0
  124.3960   95.0830   56.7610 C   0  0  0  0  0  3  0  0  0  0  0  0
  124.0880   94.9750   55.4030 C   0  0  0  0  0  3  0  0  0  0  0  0
  124.0360   93.7140   54.7920 C   0  0  0  0  0  0  0  0  0  0  0  0
  123.5280   93.5350   53.4900 C   0  0  0  0  0  3  0  0  0  0  0  0
  1 11  1  0  0  0  0
  1  9  1  0  0  0  0
  2  1  2  0  0  0  0
  3  2  1  0  0  0  0
  3  7  2  0  0  0  0
  4  3  1  0  0  0  0
  5  4  1  0  0  0  0
  5  6  2  0  0  0  0
  6  2  1  0  0  0  0
  7  8  1  0  0  0  0
  8  9  2  0  0  0  0
 11 10  1  0  0  0  0
 12  4  1  0  0  0  0
 12 13  1  0  0  0  0
 13 22  2  0  0  0  0
 13 14  1  0  0  0  0
 14 15  2  0  0  0  0
 15 16  1  0  0  0  0
 16 17  1  0  0  0  0
 17 18  2  0  0  0  0
 19 18  1  0  0  0  0
 20 19  2  0  0  0  0
 21 20  1  0  0  0  0
 21 16  2  0  0  0  0
 22 21  1  0  0  0  0
M  END
>  <MODEL>
1

>  <REMARK>
 VINA RESULT:    -5.931      0.000      0.000
 INTER + INTRA:          -7.600
 INTER:                  -6.971
 INTRA:                  -0.629
 UNBOUND:                -0.629
  Name = ﻿
  4 active torsions:
  status: ('A' for Active; 'I' for Inactive)
    1  A    between atoms: C_1  and  O_2
    2  A    between atoms: O_2  and  C_3
    3  A    between atoms: N_6  and  C_7
    4  A    between atoms: C_7  and  C_8
                            x       y       z     vdW  Elec       q    Type
                         _______ _______ _______ _____ _____    ______ ____

>  <TORSDO>
F 3

$$$$
