
 OpenBabel01172621123D

 22 25  0  0  0  0  0  0  0  0999 V2000
  142.0520  130.9320  162.6130 C   0  0  0  0  0  0  0  0  0  0  0  0
  142.1360  131.4330  163.9350 C   0  0  0  0  0  0  0  0  0  0  0  0
  141.1740  132.3190  164.4010 C   0  0  0  0  0  0  0  0  0  0  0  0
  141.5480  132.5770  165.6980 N   0  0  0  0  0  0  0  0  0  0  0  0
  142.7000  131.8940  165.9490 C   0  0  0  0  0  3  0  0  0  0  0  0
  143.0770  131.1760  164.9180 N   0  0  0  0  0  0  0  0  0  0  0  0
  140.0960  132.7510  163.6220 C   0  0  0  0  0  3  0  0  0  0  0  0
  140.0300  132.2620  162.3130 C   0  0  0  0  0  3  0  0  0  0  0  0
  140.9810  131.3620  161.8160 C   0  0  0  0  0  3  0  0  0  0  0  0
  143.2830  130.0400  160.8030 C   0  0  0  0  0  1  0  0  0  0  0  0
  142.9950  130.0200  162.1970 O   0  0  0  0  0  0  0  0  0  0  0  0
  140.8740  133.4480  166.6540 C   0  0  0  0  0  2  0  0  0  0  0  0
  139.8450  132.7510  167.5140 C   0  0  0  0  0  0  0  0  0  0  0  0
  140.2350  132.3700  168.8090 C   0  0  0  0  0  3  0  0  0  0  0  0
  139.3410  131.7220  169.6650 C   0  0  0  0  0  3  0  0  0  0  0  0
  138.0880  131.3130  169.2000 C   0  0  0  0  0  0  0  0  0  0  0  0
  137.2210  130.5850  170.0210 C   0  0  0  0  0  3  0  0  0  0  0  0
  136.2160  129.8160  169.4440 C   0  0  0  0  0  3  0  0  0  0  0  0
  135.9220  129.9590  168.0920 C   0  0  0  0  0  3  0  0  0  0  0  0
  136.6050  130.9110  167.3310 C   0  0  0  0  0  3  0  0  0  0  0  0
  137.7330  131.5550  167.8590 C   0  0  0  0  0  0  0  0  0  0  0  0
  138.5730  132.3590  167.0630 C   0  0  0  0  0  3  0  0  0  0  0  0
  1  2  1  0  0  0  0
  2  3  2  0  0  0  0
  2  6  1  0  0  0  0
  3  4  1  0  0  0  0
  4  5  1  0  0  0  0
  4 12  1  0  0  0  0
  6  5  2  0  0  0  0
  7  3  1  0  0  0  0
  8  7  2  0  0  0  0
  9  8  1  0  0  0  0
  9  1  2  0  0  0  0
 10 11  1  0  0  0  0
 11  1  1  0  0  0  0
 12 13  1  0  0  0  0
 13 14  1  0  0  0  0
 14 15  2  0  0  0  0
 16 15  1  0  0  0  0
 16 17  1  0  0  0  0
 18 17  2  0  0  0  0
 19 18  1  0  0  0  0
 20 21  1  0  0  0  0
 20 19  2  0  0  0  0
 21 16  2  0  0  0  0
 22 13  2  0  0  0  0
 22 21  1  0  0  0  0
M  END
>  <MODEL>
1

>  <REMARK>
 VINA RESULT:    -6.756      0.000      0.000
 INTER + INTRA:          -8.550
 INTER:                  -7.941
 INTRA:                  -0.609
 UNBOUND:                -0.609
  Name = ﻿
  4 active torsions:
  status: ('A' for Active; 'I' for Inactive)
    1  A    between atoms: C_1  and  O_2
    2  A    between atoms: O_2  and  C_3
    3  A    between atoms: N_6  and  C_7
    4  A    between atoms: C_7  and  C_8
                            x       y       z     vdW  Elec       q    Type
                         _______ _______ _______ _____ _____    ______ ____

>  <TORSDO>
F 3

$$$$
