
 OpenBabel01172621383D

 22 25  0  0  0  0  0  0  0  0999 V2000
  -20.9130   18.6470   23.3120 C   0  0  0  0  0  0  0  0  0  0  0  0
  -22.0670   19.2670   22.7710 C   0  0  0  0  0  0  0  0  0  0  0  0
  -23.2210   19.3670   23.5350 C   0  0  0  0  0  0  0  0  0  0  0  0
  -24.1130   20.0240   22.7230 N   0  0  0  0  0  0  0  0  0  0  0  0
  -23.5020   20.2560   21.5270 C   0  0  0  0  0  3  0  0  0  0  0  0
  -22.2610   19.8320   21.5220 N   0  0  0  0  0  0  0  0  0  0  0  0
  -23.3100   18.8840   24.8460 C   0  0  0  0  0  3  0  0  0  0  0  0
  -22.1710   18.2600   25.3650 C   0  0  0  0  0  3  0  0  0  0  0  0
  -20.9900   18.1500   24.6220 C   0  0  0  0  0  3  0  0  0  0  0  0
  -18.5700   18.3430   23.2620 C   0  0  0  0  0  1  0  0  0  0  0  0
  -19.7720   18.6060   22.5450 O   0  0  0  0  0  0  0  0  0  0  0  0
  -25.4870   20.3950   23.0390 C   0  0  0  0  0  2  0  0  0  0  0  0
  -26.0410   21.5160   22.1900 C   0  0  0  0  0  0  0  0  0  0  0  0
  -25.6910   22.8300   22.5430 C   0  0  0  0  0  3  0  0  0  0  0  0
  -26.1620   23.9200   21.8080 C   0  0  0  0  0  3  0  0  0  0  0  0
  -27.1070   23.7330   20.7950 C   0  0  0  0  0  0  0  0  0  0  0  0
  -27.6540   24.8250   20.1130 C   0  0  0  0  0  3  0  0  0  0  0  0
  -28.8720   24.6830   19.4570 C   0  0  0  0  0  3  0  0  0  0  0  0
  -29.4180   23.4170   19.2740 C   0  0  0  0  0  3  0  0  0  0  0  0
  -28.7150   22.2900   19.7060 C   0  0  0  0  0  3  0  0  0  0  0  0
  -27.5850   22.4360   20.5230 C   0  0  0  0  0  0  0  0  0  0  0  0
  -26.9720   21.3350   21.1520 C   0  0  0  0  0  3  0  0  0  0  0  0
  1  9  1  0  0  0  0
  2  1  2  0  0  0  0
  2  3  1  0  0  0  0
  3  7  2  0  0  0  0
  4 12  1  0  0  0  0
  4  3  1  0  0  0  0
  5  4  1  0  0  0  0
  6  5  2  0  0  0  0
  6  2  1  0  0  0  0
  7  8  1  0  0  0  0
  9  8  2  0  0  0  0
 11 10  1  0  0  0  0
 11  1  1  0  0  0  0
 13 14  1  0  0  0  0
 13 12  1  0  0  0  0
 15 14  2  0  0  0  0
 16 15  1  0  0  0  0
 17 16  2  0  0  0  0
 18 17  1  0  0  0  0
 19 18  2  0  0  0  0
 19 20  1  0  0  0  0
 20 21  2  0  0  0  0
 21 16  1  0  0  0  0
 21 22  1  0  0  0  0
 22 13  2  0  0  0  0
M  END
>  <MODEL>
1

>  <REMARK>
 VINA RESULT:    -6.610      0.000      0.000
 INTER + INTRA:          -8.081
 INTER:                  -7.770
 INTRA:                  -0.311
 UNBOUND:                -0.311
  Name = ﻿
  4 active torsions:
  status: ('A' for Active; 'I' for Inactive)
    1  A    between atoms: C_1  and  O_2
    2  A    between atoms: O_2  and  C_3
    3  A    between atoms: N_6  and  C_7
    4  A    between atoms: C_7  and  C_8
                            x       y       z     vdW  Elec       q    Type
                         _______ _______ _______ _____ _____    ______ ____

>  <TORSDO>
F 3

$$$$
