
 OpenBabel01172621273D

 22 25  0  0  0  0  0  0  0  0999 V2000
    4.6280    4.8870   44.8270 C   0  0  0  0  0  0  0  0  0  0  0  0
    4.7770    5.1420   46.2130 C   0  0  0  0  0  0  0  0  0  0  0  0
    4.4870    4.1440   47.1340 C   0  0  0  0  0  0  0  0  0  0  0  0
    4.7550    4.7180   48.3540 N   0  0  0  0  0  0  0  0  0  0  0  0
    5.1470    6.0050   48.1380 C   0  0  0  0  0  3  0  0  0  0  0  0
    5.1920    6.2940   46.8590 N   0  0  0  0  0  0  0  0  0  0  0  0
    4.0510    2.8680   46.7620 C   0  0  0  0  0  3  0  0  0  0  0  0
    3.8920    2.6320   45.3930 C   0  0  0  0  0  3  0  0  0  0  0  0
    4.1830    3.6150   44.4400 C   0  0  0  0  0  3  0  0  0  0  0  0
    4.3490    5.7880   42.6600 C   0  0  0  0  0  1  0  0  0  0  0  0
    4.9680    5.8810   43.9390 O   0  0  0  0  0  0  0  0  0  0  0  0
    4.6240    4.1000   49.6670 C   0  0  0  0  0  2  0  0  0  0  0  0
    5.7390    3.1420   50.0210 C   0  0  0  0  0  0  0  0  0  0  0  0
    5.3810    1.8220   50.3440 C   0  0  0  0  0  3  0  0  0  0  0  0
    6.3540    0.8790   50.6810 C   0  0  0  0  0  3  0  0  0  0  0  0
    7.6870    1.2650   50.8440 C   0  0  0  0  0  0  0  0  0  0  0  0
    8.6540    0.3480   51.2690 C   0  0  0  0  0  3  0  0  0  0  0  0
    9.8300    0.8110   51.8480 C   0  0  0  0  0  3  0  0  0  0  0  0
   10.1500    2.1640   51.7830 C   0  0  0  0  0  3  0  0  0  0  0  0
    9.3110    3.0420   51.0930 C   0  0  0  0  0  3  0  0  0  0  0  0
    8.0440    2.6170   50.6690 C   0  0  0  0  0  0  0  0  0  0  0  0
    7.0860    3.5170   50.1610 C   0  0  0  0  0  3  0  0  0  0  0  0
  1  2  1  0  0  0  0
  2  6  1  0  0  0  0
  2  3  2  0  0  0  0
  3  4  1  0  0  0  0
  4 12  1  0  0  0  0
  5  4  1  0  0  0  0
  6  5  2  0  0  0  0
  7  3  1  0  0  0  0
  8  7  2  0  0  0  0
  9  1  2  0  0  0  0
  9  8  1  0  0  0  0
 10 11  1  0  0  0  0
 11  1  1  0  0  0  0
 12 13  1  0  0  0  0
 13 22  2  0  0  0  0
 13 14  1  0  0  0  0
 14 15  2  0  0  0  0
 15 16  1  0  0  0  0
 16 17  1  0  0  0  0
 17 18  2  0  0  0  0
 19 18  1  0  0  0  0
 20 19  2  0  0  0  0
 21 16  2  0  0  0  0
 21 20  1  0  0  0  0
 22 21  1  0  0  0  0
M  END
$$$$
