=
 OpenBabel03202610293D

 22 25  0  0  0  0  0  0  0  0999 V2000
   13.7790   -9.1690   70.7120 C   0  0  0  0  0  0  0  0  0  0  0  0
   12.4830   -9.5600   70.3050 C   0  0  0  0  0  0  0  0  0  0  0  0
   11.5170   -8.5900   70.0360 C   0  0  0  0  0  0  0  0  0  0  0  0
   10.4140   -9.3110   69.6470 N   0  0  0  0  0  0  0  0  0  0  0  0
   10.7150  -10.6420   69.7460 C   0  0  0  0  0  3  0  0  0  0  0  0
   11.9560  -10.8260   70.1210 N   0  0  0  0  0  0  0  0  0  0  0  0
   11.7620   -7.2180   70.1570 C   0  0  0  0  0  3  0  0  0  0  0  0
   13.0420   -6.8390   70.5580 C   0  0  0  0  0  3  0  0  0  0  0  0
   14.0320   -7.7890   70.8250 C   0  0  0  0  0  3  0  0  0  0  0  0
   15.7590   -9.7950   71.8210 C   0  0  0  0  0  1  0  0  0  0  0  0
   14.7290  -10.1380   70.9140 O   0  0  0  0  0  0  0  0  0  0  0  0
    9.1220   -8.7810   69.2450 C   0  0  0  0  0  2  0  0  0  0  0  0
    9.1230   -8.0520   67.9170 C   0  0  0  0  0  0  0  0  0  0  0  0
    9.3270   -8.8100   66.7560 C   0  0  0  0  0  3  0  0  0  0  0  0
    9.3690   -8.2030   65.4990 C   0  0  0  0  0  3  0  0  0  0  0  0
    9.3210   -6.8110   65.3810 C   0  0  0  0  0  0  0  0  0  0  0  0
    9.4580   -6.1900   64.1330 C   0  0  0  0  0  3  0  0  0  0  0  0
    9.6870   -4.8190   64.0510 C   0  0  0  0  0  3  0  0  0  0  0  0
    9.6600   -4.0430   65.2090 C   0  0  0  0  0  3  0  0  0  0  0  0
    9.3520   -4.6290   66.4380 C   0  0  0  0  0  3  0  0  0  0  0  0
    9.2130   -6.0210   66.5450 C   0  0  0  0  0  0  0  0  0  0  0  0
    9.0370   -6.6550   67.7910 C   0  0  0  0  0  3  0  0  0  0  0  0
  1  9  1  0  0  0  0
  1 11  1  0  0  0  0
  2  1  2  0  0  0  0
  3  7  2  0  0  0  0
  3  2  1  0  0  0  0
  4  5  1  0  0  0  0
  4  3  1  0  0  0  0
  5  6  2  0  0  0  0
  6  2  1  0  0  0  0
  7  8  1  0  0  0  0
  8  9  2  0  0  0  0
 11 10  1  0  0  0  0
 12  4  1  0  0  0  0
 13 12  1  0  0  0  0
 14 13  2  0  0  0  0
 15 14  1  0  0  0  0
 16 15  2  0  0  0  0
 16 21  1  0  0  0  0
 17 16  1  0  0  0  0
 18 17  2  0  0  0  0
 18 19  1  0  0  0  0
 19 20  2  0  0  0  0
 20 21  1  0  0  0  0
 21 22  2  0  0  0  0
 22 13  1  0  0  0  0
M  END
$$$$
